[vehicle info]
vehicle path: kenworth.w900a
alt uvset: false
name: Kenworth W900A
trailer: false
mod: true
mod author: bigdaddyt150
mod link workshop: https://steamcommunity.com/sharedfiles/filedetails/?id=2032655017
mod link forums: 
mod link author site: 
uses accessories: false
accessories: 

[cabins]
separate paintjobs: true
a: Cabin A (1976 AeroDyne);big3
b: Cabin B (Custom Bunk);big2
c: Cabin C (Double Bunk);big
d: Cabin D (Flat Top);flattop
e: Cabin E (DayCab);daycab